<?xml version="1.0" encoding="UTF-8"?>

<!-- generated on 2026-06-16 05:44:00.178357 by Eclipse SUMO osmWebWizard.py v1_27_0+0000-e238ea04b71
  options: 
-->

<additional xmlns:xsi="http://www.w3.org/2001/XMLSchema-instance" xsi:noNamespaceSchemaLocation="http://sumo.dlr.de/xsd/additional_file.xsd">
   <edgeData id="wizard_example" period="3600" file="edgeData.xml"/>
</additional>
